**
**      Structure:  gas network
**      Test Objective: test of the ge joint branch
**
*NODE,NSET= NALL
1 ,  1,  2, 0
2 ,  2,  2, 0
3 ,  3,  2, 0
4 ,  4,  2, 0
5 ,  5,  1, 0
6 ,  6,  0, 0
7 ,  7,  0, 0
8 ,  8,  0, 0
9 ,  9,  0, 0
10,  1, -2, 0
11,  2, -2, 0
12,  3, -2, 0
13,  4, -2, 0
14,  5, -1, 0
*ELEMENT, TYPE=D,ELSET=AGAS
1,   0,  1,  2
2,   2,  3,  4
*ELEMENT, TYPE=D,ELSET=BGAS	
6,   0, 10, 11
7,  11, 12, 13
*ELEMENT, TYPE=D,ELSET=CGAS
3,   4,  5,  6
8,  13, 14,  6
*ELEMENT, TYPE=D,ELSET=DGAS
4,   6,  7, 8
5 ,  8,  9, 0
*MATERIAL,NAME=GAS
*CONDUCTIVITY
50.,0.
*FLUID CONSTANTS
1.0023539E9,,
*SPECIFIC GAS CONSTANT
287E6
*DENSITY
1.E-12
*FLUID SECTION,MATERIAL=GAS,ELSET=AGAS,TYPE=ORIFICE
314,19.99
*FLUID SECTION,MATERIAL=GAS,ELSET=BGAS,TYPE=ORIFICE
500,25.2313
*FLUID SECTION,MATERIAL=GAS,ELSET=CGAS,TYPE=BRANCH JOINT GE
4,3,8,1413.7,706.8,706.8,0,90,
0,0,0
*FLUID SECTION,MATERIAL=GAS,ELSET=DGAS,TYPE=ORIFICE
962,34.99
*BOUNDARY
2,0,0,550
2,2,2,0.3
11,0,0,550
11,2,2,0.2
8,0,0,550
8,2,2,0.09
6,0,0,550
4,0,0,550
8,0,0,550
13,0,0,550
*STEP,INC=100
*HEAT TRANSFER,STEADY STATE
1.,1.
*NODE PRINT,NSET=NALL
U,NT
*END STEP
