**
**      Structure: gas network
**      Test Objective: test of the ge split branch
**
*NODE,NSET= NALL
1,	1,	 0, 	0
2,	2,	 0, 	0
3,	3,	 0, 	0
4,	4,	 0, 	0
5,	5,	-1, 	0
6,	6,	-2, 	0
7,	7,	-2, 	0
8,	8, 	-2, 	0
9,	9,	-2, 	0
10,	5,	1, 	0
11, 	6,	2, 	0
12,	7,	2, 	0
13, 	8,	2, 	0
14,	9,	2,	0
*ELEMENT, TYPE=D,ELSET=AGAS
1,	0,	1,	2
2,	2,	3,	4
*ELEMENT, TYPE=D,ELSET=BGAS
3,	4,	5,	6
6,	4,	10,	11
*ELEMENT, TYPE=D,ELSET=CGAS
4,	6,	7,	8 
5,	8,	9,	0 
*ELEMENT, TYPE=D,ELSET=DGAS
7,	11,	12,	13	
8,	13,	14,	0
*MATERIAL,NAME=GAS
*CONDUCTIVITY
50.,0.
*FLUID CONSTANTS
1.002353938E9,
*SPECIFIC GAS CONSTANT
287E6
*DENSITY
1.E-12
*FLUID SECTION,MATERIAL=GAS,ELSET=AGAS,TYPE=ORIFICE
962,34.99
*FLUID SECTION,MATERIAL=GAS,ELSET=BGAS,TYPE=BRANCH SPLIT GE
2,3,6,1414,706.6,706.6,60,45,
0,0,0
*FLUID SECTION,MATERIAL=GAS,ELSET=CGAS,TYPE=ORIFICE
314,19.99
*FLUID SECTION,MATERIAL=GAS,ELSET=DGAS,TYPE=ORIFICE
314,19.99
*BOUNDARY
2,0,0,550
2,2,2,0.3
8,2,2,0.18
8,0,0,550
13,2,2,0.1
13,0,0,550
4,0,0,550
6,0,0,550
11,0,0,550
*STEP,INC=100
*HEAT TRANSFER,STEADY STATE
1.,1.
*NODE PRINT,NSET=NALL
U,NT
*END STEP
