**
**   Structure: two cubes on top of each other.
**   Test objective: contact between shells and bricks.
**
*NODE, NSET=Nall
       1,  1.00000e+00,  1.00000e+00, -1.49012e-08 
       2,  1.00000e+00,  0.00000e+00, -1.49012e-08 
       3,  1.00000e+00,  0.00000e+00,  1.00000e+00 
       4,  1.00000e+00,  1.00000e+00,  1.00000e+00 
       5, -7.45058e-09,  1.00000e+00, -1.49012e-08 
       6, -7.45058e-09,  0.00000e+00, -1.49012e-08 
       7, -7.45058e-09,  0.00000e+00,  1.00000e+00 
       8, -7.45058e-09,  1.00000e+00,  1.00000e+00 
       9,  5.00000e-01,  6.41421e-01,  1.00000e+00 
      10,  6.41421e-01,  5.00000e-01,  1.00000e+00 
      11,  .570711, 0.570711, 1.000000 
      12,  0.570711, 0.429289, 1.000000
      13,  3.58579e-01,  5.00000e-01,  1.00000e+00 
      14,  5.00000e-01,  3.58579e-01,  1.00000e+00 
      15,  0.429289, 0.429289, 1.000000
      16,  0.429289, 0.570711, 1.000000
*ELEMENT, TYPE=C3D8, ELSET=EVOL
     1,     1,     2,     3,     4,     5,     6,     7,     8
*ELEMENT, TYPE=S8, ELSET=ESHELL
     2,     9,    10,    14,13,11,12,15,16
*NSET,NSET=Nfix 
1, 
2, 
5, 
6, 
*NSET,NSET=Nfixxy
9,10,13,14,11,12,15,16,
3,4,7,8
*BOUNDARY
Nfix,1,3
Nfixxy,1,2
*MATERIAL,NAME=EL
*ELASTIC
210000.,.3
*SOLID SECTION,ELSET=EVOL,MATERIAL=EL
*SHELL SECTION,ELSET=ESHELL,MATERIAL=EL,OFFSET=0.5
.2
*SURFACE,NAME=Smast
1,S5
*SURFACE,NAME=Sslav
2,S2
*CONTACT PAIR,INTERACTION=SI1,TYPE=SURFACE TO SURFACE
Sslav,Smast
*SURFACE INTERACTION,NAME=SI1
*SURFACE BEHAVIOR,PRESSURE-OVERCLOSURE=LINEAR
1.E7,3.
*STEP,NLGEOM
*STATIC
*DLOAD
2,P1,100.
*NODE FILE,CONTACT ELEMENT,FREQUENCY=100
U
*EL FILE
S
*END STEP
