**
**   Structure: 2d Couette incompressible fluid flow
**   Test objective: CFD Finite Volume Method
**                   mean entrance velocity 0.5
**		     moving wall: velocity 1.
**                   fixed wall: velocity 0 
**                   pressure at exit 1.
**                   only 1 hexahedral element
**   Analytical solution: v linear between 0. and 1.
**                        p constant at 1.
**
*NODE,NSET=Nall
1,0.,0.,1.
2,1.,0.,1.
3,1.,0.,0.
4,0.,0.,0.
5,0.,1.,1.
6,1.,1.,1.
7,1.,1.,0.
8,0.,1.,0.
*ELEMENT,TYPE=F3D8,ELSET=Eall
1,1,2,3,4,5,6,7,8
*SURFACE,NAME=SOLIDSURFACE
1,S1
1,S2
*MATERIAL,NAME=WATER
*DENSITY
1.
*FLUID CONSTANTS
1.,1.
*CONDUCTIVITY
1.
*SOLID SECTION,ELSET=Eall,MATERIAL=WATER
*INITIAL CONDITIONS,TYPE=FLUID VELOCITY
Nall,1,0.5
Nall,2,0.
Nall,3,0.
*INITIAL CONDITIONS,TYPE=PRESSURE
Nall,1.
*STEP,INCF=1
*STATIC
1.,1.,,,0.01
*BOUNDARYF
1,S1,1,3,0.
1,S2,1,1,1.
1,S2,2,3,0.
1,S3,3,3,0.
1,S5,3,3,0.
1,S6,1,1,.5
1,S6,2,3,0.
1,S4,8,8,1.
*NODE PRINT,NSET=Nall
VF,PSF
*EL PRINT,ELSET=Eall
SVF
*END STEP
