**
**      Structure: gas pipe.
**      Test objective: structure loaded by network pressure.
**
*NODE,NSET=Nall
1,0.,0.,0.
2,0.,.5,0.
3,0.,1.,0.
4,.1,0.,0.
5,.1,.5,0.
6,.1,1.,0.
7,.105,1.,0.
8,.11,1.,0.
9,.11,.5,0.
10,.11,0.,0.
11,.105,0.,0.
12,0.,-0.5,0.
13,0.,1.5,0.
*ELEMENT,TYPE=CAX8,ELSET=WALL
1,4,10,8,6,11,9,7,5
*ELEMENT,TYPE=D,ELSET=FLUID
2,1,2,3
3,0,12,1
4,3,13,0
*MATERIAL,NAME=EL
*ELASTIC
210000.,.3
*CONDUCTIVITY
50.,0.
*DENSITY
7.8E-9
*MATERIAL,NAME=GAS
*CONDUCTIVITY
50.,0.
*FLUID CONSTANTS
1.002353938E9,
*SPECIFIC GAS CONSTANT
287E6
*DENSITY
1.E-9
*SOLID SECTION,ELSET=WALL,MATERIAL=EL
*FLUID SECTION,ELSET=FLUID,MATERIAL=GAS,TYPE=GASPIPE ADIABATIC
0.031416,0.2,1.,0.0001,0.,0.,0.,0,
0,0,0
*BOUNDARY
4,2,2,0.
*INITIAL CONDITIONS,TYPE=TEMPERATURE
Nall,273
*STEP
*COUPLED TEMPERATURE-DISPLACEMENT,STEADY STATE
1.,1.
*BOUNDARY
1,2,2,3.
3,2,2,2.
*DLOAD
1,P4NP,3
*NODE PRINT,NSET=Nall
U
*EL PRINT,ELSET=WALL
S
*END STEP

