**
**      Structure: linear gas network
**      Test Objective: test of relative/absolute elements,
**                      free vortex
**
*HEADING
Model: linear net 3 elements Dtype 
*NODE,NSET= NALL
1,   1, 0, 0
2,   2, 0, 0
3,   3, 0, 0
4,   4, 0, 0
5,   5, 0, 0
6,   6, 0, 0
7,   7, 0, 0
8,   8, 0, 0
9,   9, 0, 0
10, 10, 0, 0
11, 11, 0, 0
12, 12, 0, 0
13, 13, 0 ,0
14, 14, 0, 0
15,15, 0, 0
*ELEMENT, TYPE=D,ELSET=ENTRANCE
1, 0, 1, 2
*ELEMENT, TYPE=D,ELSET=ORIFICE1
2, 2, 3, 4
*ELEMENT, TYPE=D,ELSET=SYSCHNG1
3, 4, 5, 6
*ELEMENT, TYPE=D,ELSET=ORIFICE2
4, 6, 7, 8
*ELEMENT, TYPE=D,ELSET=SYSCHNG2
5, 8, 9, 10
*ELEMENT, TYPE=D,ELSET=ORIFICE3
6, 10,11,12
*ELEMENT, TYPE=D,ELSET=VORTEX
7, 12,13,14
*ELEMENT, TYPE=D,ELSET=EXIT
8, 14,15,0
*MATERIAL,NAME=GAS
*CONDUCTIVITY
50.,0.
*FLUID CONSTANTS
1.0019E9,,100
1.0022E9,,200
1.0045E9,,300
1.0131E9,,400
1.0292E9,,500
1.0506E9,,600
1.0745E9,,700
1.0982E9,,800
1.1204E9,,900
1.1405E9,,1000
1.1583E9,,1100
1.1739E9,,1200
1.1976E9,,1300
1.1997E9,,1400
1.2104E9,,1500
1.2199E9,,1600
1.2284E9,,1700
1.2361E9,,1800
1.2431E9,,1900
1.2495E9,,2000
*SPECIFIC GAS CONSTANT
287E6
*DENSITY
1.E-9
*FLUID SECTION,MATERIAL=GAS,ELSET=ENTRANCE,TYPE=INOUT
*FLUID SECTION,MATERIAL=GAS,ELSET=ORIFICE1,TYPE=PRESWIRLNOZZLE
500,45,0.5,0
*FLUID SECTION,MATERIAL=GAS,ELSET=SYSCHNG1,TYPE=ABSOLUTE TO RELATIVE
500000,100000
*FLUID SECTION,MATERIAL=GAS,ELSET=ORIFICE2,TYPE=ORIFICE
500,25.2313
*FLUID SECTION,MATERIAL=GAS,ELSET=SYSCHNG2,TYPE=RELATIVE TO ABSOLUTE
500000,400000
*FLUID SECTION,MATERIAL=GAS,ELSET=ORIFICE3,TYPE=ORIFICE
500,25.2313
*FLUID SECTION,MATERIAL=GAS,ELSET=VORTEX,TYPE=VORTEX FREE
250,20,0.5,1,0,0,50000,0,				
2
*FLUID SECTION,MATERIAL=GAS,ELSET=EXIT,TYPE=INOUT
*BOUNDARY			
2,0,0,550
2,2,2,1
14,2,2,0.5
*STEP,INC=100
*HEAT TRANSFER,STEADY STATE
1.,1.
*NODE PRINT,NSET=NALL
U,NT
*END STEP
